ipss.plugin.3phase/testData/feeder/DistOPFGridappsdDss/4Bus-YY-Bal/main-InterPSS.dss
clear
Set DefaultBaseFrequency=60

! GRIDAPPSD/distopf src/distopf/cases/dss/4Bus-YY-Bal/4Bus-YY-Bal.DSS, source snapshot ce39973.
new circuit.4BusYYbal basekV=12.47 phases=3
~ mvasc3=200000 200000

set earthmodel=carson

new wiredata.conductor Runits=mi Rac=0.306 GMRunits=ft GMRac=0.0244  Radunits=in Diam=0.721 normamps=530
new wiredata.neutral   Runits=mi Rac=0.592 GMRunits=ft GMRac=0.00814 Radunits=in Diam=0.563 normamps=340

new linegeometry.4wire nconds=4 nphases=3 reduce=yes
~ cond=1 wire=conductor units=ft x=-4   h=28
~ cond=2 wire=conductor units=ft x=-1.5 h=28
~ cond=3 wire=conductor units=ft x=3    h=28
~ cond=4 wire=neutral   units=ft x=0    h=24

new line.line1 geometry=4wire length=2000 units=ft bus1=sourcebus bus2=n2

new transformer.t1 xhl=6
~ wdg=1 bus=n2 conn=wye kV=12.47 kVA=6000 %r=0.5
~ wdg=2 bus=n3 conn=wye kV=4.16  kVA=6000 %r=0.5

new line.line2 bus1=n3 bus2=n4 geometry=4wire length=2500 units=ft

new load.load1 phases=3 bus1=n4 conn=wye kV=4.16 kW=5400 pf=0.9 model=1
~ vminpu=0.75

set voltagebases=[12.47, 4.16]
calcvoltagebases
set loadmult=1
solve
